[General]
network = flora.simulations.RailwayLoRaStar
sim-time-limit = 5000s
simtime-resolution = -11

**.maxTransmissionDuration = 10s

output-vector-file = results/railway-lora-${runnumber}.vec
output-scalar-file = results/railway-lora-${runnumber}.sca
**.vector-recording = true
record-eventlog = true

rng-class = "cMersenneTwister"

**.loRaGW[0].packetForwarder.destPort = 1000
**.loRaGW[0].packetForwarder.localPort = 2000
**.loRaGW[0].packetForwarder.destAddresses = "networkServer"

**.loRaGW[1].packetForwarder.destPort = 1000
**.loRaGW[1].packetForwarder.localPort = 2001
**.loRaGW[1].packetForwarder.destAddresses = "networkServer"

**.networkServer.numApps = 1
**.networkServer.app[0].typename = "NetworkServerApp"
**.networkServer.app[0].localPort = 1000
**.networkServer.app[0].adrMethod = "avg"

**.loRaNodes[*].numApps = 1
**.loRaNodes[*].app[0].typename = "SimpleLoRaApp"

**.loRaNodes[*].**initialLoRaSF = 12
**.loRaNodes[*].**initialLoRaTP = 14dBm
**.loRaNodes[*].**.evaluateADRinNode = true
**.loRaNodes[*].LoRaNic.radio.energyConsumer.typename = "LoRaEnergyConsumer"
**.loRaNodes[*].**.energySourceModule = "^.IdealEpEnergyStorage"
**.loRaNodes[*].LoRaNic.radio.energyConsumer.configFile = xmldoc("energyConsumptionParameters.xml")
**.loRaNodes[*].**.initFromDisplayString = false
**.loRaGW[*].**.initFromDisplayString = false

**.loRaGW[0].mobility.initialX = 100m
**.loRaGW[0].mobility.initialY = 400m
**.loRaGW[1].mobility.initialX = 2000m
**.loRaGW[1].mobility.initialY = 400m

**.loRaNodes[0].**.initialX = 100m
**.loRaNodes[0].**.initialY = 650m
**.loRaNodes[1].**.initialX = 200m
**.loRaNodes[1].**.initialY = 550m
**.loRaNodes[2].**.initialX = 300m
**.loRaNodes[2].**.initialY = 650m
**.loRaNodes[3].**.initialX = 400m
**.loRaNodes[3].**.initialY = 550m
**.loRaNodes[4].**.initialX = 500m
**.loRaNodes[4].**.initialY = 650m
**.loRaNodes[5].**.initialX = 600m
**.loRaNodes[5].**.initialY = 550m
**.loRaNodes[6].**.initialX = 700m
**.loRaNodes[6].**.initialY = 650m
**.loRaNodes[7].**.initialX = 800m
**.loRaNodes[7].**.initialY = 550m
**.loRaNodes[8].**.initialX = 900m
**.loRaNodes[8].**.initialY = 650m
**.loRaNodes[9].**.initialX = 1000m
**.loRaNodes[9].**.initialY = 550m
**.loRaNodes[10].**.initialX = 1100m
**.loRaNodes[10].**.initialY = 650m
**.loRaNodes[11].**.initialX = 1200m
**.loRaNodes[11].**.initialY = 550m
**.loRaNodes[12].**.initialX = 1300m
**.loRaNodes[12].**.initialY = 650m
**.loRaNodes[13].**.initialX = 1400m
**.loRaNodes[13].**.initialY = 550m
**.loRaNodes[14].**.initialX = 1500m
**.loRaNodes[14].**.initialY = 650m
**.loRaNodes[15].**.initialX = 1600m
**.loRaNodes[15].**.initialY = 550m
**.loRaNodes[16].**.initialX = 1700m
**.loRaNodes[16].**.initialY = 650m
**.loRaNodes[17].**.initialX = 1800m
**.loRaNodes[17].**.initialY = 550m
**.loRaNodes[18].**.initialX = 1900m
**.loRaNodes[18].**.initialY = 650m
**.loRaNodes[19].**.initialX = 2000m
**.loRaNodes[19].**.initialY = 550m

**.timeToFirstPacket = uniform(1s, 10s)
**.timeToNextPacket = exponential(60s)

**.radio.radioMediumModule = "LoRaMedium"
**.minInterferenceTime = 0s

**.ipv4Delayer.config = xmldoc("cloudDelays.xml")

**.constraintAreaMinX = 0m
**.constraintAreaMaxX = 2500m
**.constraintAreaMinY = -50m
**.constraintAreaMaxY = 900m

cmdenv-express-mode = false
